Version 4.1
SHEET 1 880 680
WIRE 512 64 208 64
WIRE 208 80 208 64
WIRE 144 128 -160 128
WIRE -96 160 -336 160
WIRE 400 160 352 160
WIRE 144 192 -32 192
WIRE -160 208 -160 128
WIRE -32 208 -32 192
WIRE -96 224 -96 160
WIRE -96 224 -112 224
WIRE -80 224 -96 224
WIRE 512 240 512 64
WIRE -96 272 -112 272
WIRE -80 272 -96 272
WIRE -96 320 -96 272
WIRE 16 320 -96 320
WIRE 208 320 208 240
WIRE -160 336 -160 288
WIRE -96 336 -160 336
WIRE -32 336 -32 288
WIRE -32 336 -96 336
WIRE -336 352 -336 160
WIRE -96 352 -96 336
WIRE -336 496 -336 432
WIRE -96 496 -96 432
WIRE -96 496 -336 496
WIRE 16 496 16 320
WIRE 16 496 -96 496
WIRE 208 496 208 400
WIRE 208 496 16 496
WIRE 512 496 512 320
WIRE 512 496 208 496
WIRE 16 512 16 496
FLAG 16 512 0
FLAG 400 160 Voutput
IOPIN 400 160 Out
SYMBOL e -160 192 M0
SYMATTR InstName E1
SYMATTR Value -0.5
SYMBOL e -32 192 R0
SYMATTR InstName E2
SYMATTR Value 0.5
SYMBOL voltage -96 336 M0
SYMATTR InstName Vc
SYMATTR Value 1.25
SYMBOL voltage -336 336 R0
WINDOW 123 0 0 Left 0
WINDOW 39 0 0 Left 0
SYMATTR InstName Vd
SYMATTR Value ""
SYMBOL voltage 512 224 R0
WINDOW 123 0 0 Left 2
WINDOW 39 0 0 Left 2
SYMATTR InstName VDD
SYMATTR Value 2.5
SYMBOL current 208 320 M0
WINDOW 0 24 80 Left 2
WINDOW 3 24 0 Left 2
WINDOW 123 0 0 Left 2
WINDOW 39 0 0 Left 2
SYMATTR InstName I0
SYMATTR Value 20µ
SYMBOL schematic 224 160 R0
SYMATTR InstName X1
TEXT -336 -24 Left 2 !.dc Vd -40m 40m 0.001
