Version 4.1
SHEET 1 880 680
WIRE 352 48 96 48
WIRE 208 64 -16 64
WIRE 208 112 208 64
WIRE -16 160 -16 144
WIRE 96 160 96 48
WIRE 144 160 96 160
WIRE 352 192 352 48
WIRE 384 192 352 192
WIRE 512 192 464 192
WIRE 512 208 512 192
WIRE 144 224 32 224
WIRE 32 272 32 224
WIRE 208 304 208 272
WIRE 512 368 512 288
WIRE 32 384 32 352
WIRE 208 400 208 384
FLAG 32 384 0
FLAG 512 368 0
FLAG 208 400 0
FLAG -16 160 0
FLAG 352 192 Vout
SYMBOL schematic 224 192 R0
SYMATTR InstName X1
SYMBOL voltage 32 256 R0
WINDOW 123 0 0 Left 0
WINDOW 39 0 0 Left 0
SYMATTR InstName Vin
SYMATTR Value ""
SYMBOL res 480 176 R90
WINDOW 0 0 56 VBottom 2
WINDOW 3 32 56 VTop 2
SYMATTR InstName R1
SYMATTR Value 2Meg
SYMBOL voltage 512 192 R0
WINDOW 123 0 0 Left 2
WINDOW 39 0 0 Left 2
SYMATTR InstName V2
SYMATTR Value 1.25
SYMBOL current 208 304 R0
WINDOW 123 0 0 Left 2
WINDOW 39 0 0 Left 2
SYMATTR InstName I1
SYMATTR Value 20µ
SYMBOL voltage -16 48 R0
WINDOW 123 0 0 Left 2
WINDOW 39 0 0 Left 2
SYMATTR InstName V3
SYMATTR Value 2.5
TEXT -288 112 Left 2 !.dc Vin 0 2.5 0.0001
